SIM
 OpenBabel12232409213D

 29 29  0  0  1  0  0  0  0  0999 V2000
    1.8073    2.0394    0.7437 C   0  0  0  0  0  0  0  0  0  0  0  0
    2.7894    0.9969    0.1927 C   0  0  2  0  0  0  0  0  0  0  0  0
    2.1366    0.1102   -0.8886 C   0  0  0  0  0  0  0  0  0  0  0  0
    0.7104   -0.8710   -0.3015 S   0  0  0  0  0  0  0  0  0  0  0  0
    3.3714    0.1628    1.3327 C   0  0  0  0  0  0  0  0  0  0  0  0
    2.5932   -0.4731    2.0235 O   0  0  0  0  0  0  0  0  0  0  0  0
    4.7188    0.1147    1.5994 N   0  0  0  0  0  0  0  0  0  0  0  0
    5.7182    0.7752    0.7777 C   0  0  0  0  0  0  0  0  0  0  0  0
    7.0246    0.1033    1.1799 C   0  0  0  0  0  0  0  0  0  0  0  0
    6.8055   -0.1203    2.6509 C   0  0  0  0  0  0  0  0  0  0  0  0
    5.3556   -0.6419    2.6816 C   0  0  1  0  0  0  0  0  0  0  0  0
    4.7358   -0.4417    4.0640 C   0  0  0  0  0  0  0  0  0  0  0  0
    3.6315   -1.1247    4.4354 O   0  0  0  0  0  0  0  0  0  0  0  0
    5.2918    0.2522    4.9021 O   0  0  0  0  0  0  0  0  0  0  0  0
    2.3286    2.7049    1.4647 H   0  0  0  0  0  0  0  0  0  0  0  0
    0.9549    1.5558    1.2660 H   0  0  0  0  0  0  0  0  0  0  0  0
    1.4094    2.6652   -0.0835 H   0  0  0  0  0  0  0  0  0  0  0  0
    3.5853    1.5691   -0.3212 H   0  0  0  0  0  0  0  0  0  0  0  0
    1.7982    0.7373   -1.7416 H   0  0  0  0  0  0  0  0  0  0  0  0
    2.8895   -0.5901   -1.3090 H   0  0  0  0  0  0  0  0  0  0  0  0
   -0.2200    0.1359   -0.6227 H   0  0  0  0  0  0  0  0  0  0  0  0
    5.7068    1.8634    1.0085 H   0  0  0  0  0  0  0  0  0  0  0  0
    5.5794    0.5972   -0.3108 H   0  0  0  0  0  0  0  0  0  0  0  0
    7.9379    0.6743    0.9092 H   0  0  0  0  0  0  0  0  0  0  0  0
    7.0716   -0.9006    0.6978 H   0  0  0  0  0  0  0  0  0  0  0  0
    6.8615    0.8888    3.1220 H   0  0  0  0  0  0  0  0  0  0  0  0
    7.5431   -0.7877    3.1457 H   0  0  0  0  0  0  0  0  0  0  0  0
    5.3396   -1.7244    2.4241 H   0  0  0  0  0  0  0  0  0  0  0  0
    3.2299   -1.8044    3.8782 H   0  0  0  0  0  0  0  0  0  0  0  0
  1 15  1  0  0  0  0
  1 16  1  0  0  0  0
  1 17  1  0  0  0  0
  2  5  1  0  0  0  0
  2  3  1  0  0  0  0
  2  1  1  0  0  0  0
  2 18  1  6  0  0  0
  3  4  1  0  0  0  0
  3 19  1  0  0  0  0
  3 20  1  0  0  0  0
  4 21  1  0  0  0  0
  5  6  2  0  0  0  0
  5  7  1  0  0  0  0
  7  8  1  0  0  0  0
  7 11  1  0  0  0  0
  8  9  1  0  0  0  0
  8 22  1  0  0  0  0
  8 23  1  0  0  0  0
  9 10  1  0  0  0  0
  9 24  1  0  0  0  0
  9 25  1  0  0  0  0
 10 11  1  0  0  0  0
 10 26  1  0  0  0  0
 10 27  1  0  0  0  0
 11 12  1  0  0  0  0
 11 28  1  6  0  0  0
 12 13  1  0  0  0  0
 12 14  2  0  0  0  0
 13 29  1  0  0  0  0
M  END
>  <Energy>
251.236

$$$$
